/batch
/config,noeldb,1     ! force off writing results to database
*get,_wallstrt,active,,time,wall
! ANSYS input file written by Workbench version 2020 R2
! File used for geometry attach: E:\GT_Courses\Semester_1\ME-6124\Project\Master_Geometry_3\Master Geometry_files\dp0\SYS-1\DM\SYS-1.agdb
/title,Master Geometry--Transient (A5)
*DIM,_wb_ProjectScratch_dir,string,248
_wb_ProjectScratch_dir(1) = 'E:\GT_Courses\Semester_1\ME-6124\Project\Master_Geometry_3\_ProjectScratch\Scr30A6\'
*DIM,_wb_SolverFiles_dir,string,248
_wb_SolverFiles_dir(1) = 'E:\GT_Courses\Semester_1\ME-6124\Project\Master_Geometry_3\Master Geometry_files\dp0\SYS-1\MECH\'
*DIM,_wb_userfiles_dir,string,248
_wb_userfiles_dir(1) = 'E:\GT_Courses\Semester_1\ME-6124\Project\Master_Geometry_3\Master Geometry_files\user_files\'
/com,--- Data in consistent MKS units. See Solving Units in the help system for more information.
/units,MKS
/nopr
/wb,file,start              !  signify a WB generated input file
/prep7
! Turn off shape checking because checks already performed inside WB mesher.
! See help system for more information.
SHPP,OFF,,NOWARN
/nolist
etcon,set             ! allow ANSYS to choose best KEYOP's for 180x elements
/com,*********** Nodes for the whole assembly ***********
nblock,3,,7977
(1i9,3e20.9e3)
        1     4.720455930E-02     2.964680000E-10    -7.183196405E-02
        2     3.806088590E-02     7.465816956E-03    -7.183195306E-02
        3     4.591311515E-02     4.243840563E-03    -7.183194838E-02
        4     4.247606278E-02     7.047102539E-03    -7.183194838E-02
        5     3.833742524E-02     7.533596066E-03    -2.702262168E-02
        6     3.815310149E-02     7.496581412E-03    -6.684996218E-02
        7     3.827211836E-02     7.533114222E-03    -6.186857529E-02
        8     3.838747782E-02     7.568987519E-03    -5.688709697E-02
        9     3.849292477E-02     7.594585435E-03    -5.190538157E-02
       10     3.878971785E-02     7.605742243E-03    -4.693163221E-02
       11     3.897387775E-02     7.617446454E-03    -4.195364795E-02
       12     3.869830548E-02     7.624836837E-03    -3.698049705E-02
       13     3.853884829E-02     7.582769444E-03    -3.200105914E-02
       14     4.024019872E-02     7.591432035E-03    -2.483355784E-02
       15     4.014530548E-02    -9.854232801E-03    -2.494276456E-02
       16     4.455923682E-02     6.733602059E-03    -2.488501765E-02
       17     4.765031328E-02     3.599494377E-03    -2.492973271E-02
       18     4.852185926E-02    -7.234233291E-04    -2.494644505E-02
       19     4.725034135E-02    -4.967371901E-03    -2.494104059E-02
       20     4.426839285E-02    -8.242468686E-03    -2.493935704E-02
! ... 7233 like lines cut
/com,*********** Nodes for all Remote Points ***********
nblock,3
(1i9,3e20.9e3)
     7253     0.000000000E+00     0.000000000E+00     0.000000000E+00
     7254     0.000000000E+00     0.000000000E+00     0.000000000E+00
     7255     0.000000000E+00     0.000000000E+00     0.000000000E+00
     7256     0.000000000E+00     0.000000000E+00     0.000000000E+00
-1
/wb,elem,start            !  set before creation of elements
/com,*********** Elements for Body 1 "Hip Stem Geometry" ***********
et,1,187
eblock,19,solid,,4574
(19i9)
        1        1        1        1        0        0        0        0       10        0        1      524     1079      639      970     4472     5316     4464     4467
     7040     5315
        1        1        1        1        0        0        0        0       10        0        2      639     1079      793      970     5316     6192     5314     5315
     7040     6184
        1        1        1        1        0        0        0        0       10        0        3       76      524     1079      639     1736     4472     1742     1740
     4464     5316
        1        1        1        1        0        0        0        0       10        0        4       76     1079      634      639     1742     5293     1739     1740
     5316     5291
        1        1        1        1        0        0        0        0       10        0        5      524     1079      970     1050     4472     7040     4467     4470
     7236     7036
        1        1        1        1        0        0        0        0       10        0        6      525      633     1079      634     4476     5290     4487     4477
     5283     5293
        1        1        1        1        0        0        0        0       10        0        7      524      529     1079     1071     4460     4540     4472     4471
     4539     7252
        1        1        1        1        0        0        0        0       10        0        8       77       78     1079      529     1743     1758     1751     1749
     1757     4540
        1        1        1        1        0        0        0        0       10        0        9       76     1079       77      634     1742     1751     1727     1739
     5293     1750
        1        1        1        1        0        0        0        0       10        0       10      524     1079     1050     1071     4472     7236     4470     4471
     7252     7235
! ... 9129 like lines cut
!Material Id = {C0069261-7381-4790-9312-F4D85E832E16}
/wb,elem,end               !  done creating elements
/com,*********** Send User Defined Coordinate System(s) ***********
local,12,0,1.9e-002,0.,-2.3e-002,0.,0.,0.
local,13,0,3.1e-002,0.,-2.e-002,0.,0.,0.
local,14,0,0.,0.,0.,19.1237752713264,-7.49667997923514,1.71466051352922
local,15,0,0.,0.,0.,179.119552984202,-9.96155809809037,-5.07673301656972
local,16,0,1.92e-002,0.,-2.28e-002,0.,0.,0.
local,17,0,3.2e-002,0.,-2.09e-002,0.,0.,0.
csys,0
toffst,273.15,  ! Temperature offset from absolute zero
/com,*********** Set Reference Temperature ***********
tref,22.
/wb,mat,start              !  starting to send materials
/com,*********** Send Materials ***********
Temperature = 'TEMP' ! Temperature
MPTEMP,,,,,,,,
MPTEMP,1,20
MPTEMP,2,100
MPTEMP,3,200
MPTEMP,4,300
MPTEMP,5,400
MPTEMP,6,500
MPTEMP,7,600
MPTEMP,8,700
MPTEMP,9,800
MPTEMP,10,900
MPTEMP,11,1000
MPTEMP,12,1100
MPTEMP,13,1200
MPTEMP,14,1300
MPTEMP,15,1400
MPTEMP,16,1500
MPTEMP,17,1600
MPDATA,EX,1, ,107000000000,103400000000,99510000000,93710000000,85500000000,74710000000,
MPDATA,EX,1, ,61840000000,48160000000,35290000000,24500000000,16290000000,10490000000,
MPDATA,EX,1, ,6610000000,4106000000,2528000000,1547000000,943500000,	! Pa
MPTEMP,,,,,,,,
MPTEMP,,,,,,,,
MPTEMP,1,20
MPTEMP,2,100
MPTEMP,3,200
MPTEMP,4,300
MPTEMP,5,400
MPTEMP,6,500
MPTEMP,7,600
MPTEMP,8,700
MPTEMP,9,800
MPTEMP,10,900
MPTEMP,11,1000
MPTEMP,12,1100
MPTEMP,13,1200
MPTEMP,14,1300
MPTEMP,15,1400
MPTEMP,16,1500
MPTEMP,17,1600
MPDATA,NUXY,1, ,0.323,0.328,0.334,0.339,0.345,0.351,
MPDATA,NUXY,1, ,0.357,0.363,0.369,0.374,0.38,0.386,
MPDATA,NUXY,1, ,0.392,0.398,0.403,0.409,0.415,
MPTEMP,,,,,,,,
MPTEMP,,,,,,,,
MPTEMP,1,20
MPTEMP,2,100
MPTEMP,3,200
MPTEMP,4,300
MPTEMP,5,400
MPTEMP,6,500
MPTEMP,7,600
MPTEMP,8,700
MPTEMP,9,800
MPTEMP,10,900
MPTEMP,11,1000
MPTEMP,12,1100
MPTEMP,13,1200
MPTEMP,14,1300
MPTEMP,15,1400
MPTEMP,16,1500
MPTEMP,17,1600
MPTEMP,18,1650
MPTEMP,19,1700
MPTEMP,20,1800
MPTEMP,21,1900
MPTEMP,22,1950
MPDATA,KXX,1, ,8.11,7.74,7.52,7.55,7.81,8.29,
MPDATA,KXX,1, ,8.96,9.81,10.82,11.98,13.26,14.65,
MPDATA,KXX,1, ,16.13,17.69,19.29,20.93,22.6,28.53,
MPDATA,KXX,1, ,29.45,31.28,33.11,34.02,	! W m^-1 C^-1
MPDATA,KYY,1, ,8.11,7.74,7.52,7.55,7.81,8.29,
MPDATA,KYY,1, ,8.96,9.81,10.82,11.98,13.26,14.65,
MPDATA,KYY,1, ,16.13,17.69,19.29,20.93,22.6,28.53,
MPDATA,KYY,1, ,29.45,31.28,33.11,34.02,	! W m^-1 C^-1
MPDATA,KZZ,1, ,7.01,7.34,8.02,8.95,10.07,11.36,
MPDATA,KZZ,1, ,12.75,14.21,15.68,17.14,18.52,19.78,
MPDATA,KZZ,1, ,20.88,21.77,22.42,22.76,22.76,28.53,
MPDATA,KZZ,1, ,29.45,31.28,33.11,34.02,	! W m^-1 C^-1
MPTEMP,,,,,,,,
MPTEMP,,,,,,,,
MPTEMP,1,-253.15
MPTEMP,2,-173.15
MPTEMP,3,-73.15
MPTEMP,4,26.85
MPTEMP,5,126.85
MPTEMP,6,226.85
MPTEMP,7,326.85
MPTEMP,8,426.85
MPTEMP,9,526.85
MPTEMP,10,626.85
MPTEMP,11,726.85
MPTEMP,12,826.85
MPTEMP,13,926.85
MPTEMP,14,1026.85
MPTEMP,15,1126.85
MPTEMP,16,1226.85
MPTEMP,17,1326.85
MPTEMP,18,1376.85
MPTEMP,19,1426.85
MPTEMP,20,1526.85
MPTEMP,21,1626.85
MPTEMP,22,1676.85
MPDATA,C,1, ,542.67348,552.065,565.86,581.575,598.82,617.205,
MPDATA,C,1, ,636.34,655.835,675.3,694.345,712.58,729.615,
MPDATA,C,1, ,745.06,758.525,769.62,777.955,783.14,830,
MPDATA,C,1, ,830,830,830,830,	! J kg^-1 C^-1
MPTEMP,,,,,,,,
MPTEMP,,,,,,,,
MPTEMP,1,-233.15
MPTEMP,2,-173.15
MPTEMP,3,19.85
MPTEMP,4,126.85
MPTEMP,5,326.85
MPTEMP,6,526.85
MPTEMP,7,626.86
MPTEMP,8,826.86
MPDATA,ALPX,1, ,6.5e-06,7.1e-06,8.9e-06,9.7e-06,1.08e-05,1.14e-05,
MPDATA,ALPX,1, ,1.16e-05,1.16e-05,	! C^-1
MPTEMP,,,,,,,,
MPAMOD,1,19.85,	! C
MPTEMP,,,,,,,,
MPTEMP,1,20
MPTEMP,2,1227
MPTEMP,3,1777
MPTEMP,4,1877
MPTEMP,5,2127
MPTEMP,6,2500
MPDATA,DENS,1, ,4405,4243,4189,3865,3730,3730,	! kg m^-3
MPTEMP,,,,,,,,

TB,BISO,1,6,
TBTEMP,20
TBDATA,1,1098000000,1332000000
TBTEMP,204
TBDATA,1,844000000,1207000000
TBTEMP,427
TBDATA,1,663000000,1033000000
TBTEMP,538
TBDATA,1,527000000,943000000
TBTEMP,815
TBDATA,1,60000000,708000000
TBTEMP,944
TBDATA,1,21000000,596000000

/wb,mat,end                !  done sending materials
!************************* Model Summary ********************
!Hip Stem Geometry,	Ti-6Al-4V,	matid,	1
!************************* End Model Summary ********************
! get the diagonal of the bounding box. Needed later for other things
*get,_xmin,node,,mnloc,x
*get,_ymin,node,,mnloc,y
*get,_zmin,node,,mnloc,z
*get,_xmax,node,,mxloc,x
*get,_ymax,node,,mxloc,y
*get,_zmax,node,,mxloc,z
_ASMDIAG=(_xmax-_xmin)*(_xmax-_xmin)+(_ymax-_ymin)*(_ymax-_ymin)+(_zmax-_zmin)*(_zmax-_zmin)
_ASMDIAG=SQRT(_ASMDIAG)
/wb,contact,start          !  starting to send contact
/wb,contact,end            !  done creating contacts
/golist
/wb,load,start             !  starting to send loads
/com,*********** Fixed Supports ***********
CMBLOCK,_FIXEDSU,NODE,       51
(8i10)
       100       101       102       109       114       115       195       196
       205       209       213       214       215       216       517       518
       519      1943      1945      1946      1948      1949      1950      1955
      1957      1958      2012      2013      2015      2016      2053      2055
      2057      2059      2585      2587      2590      2592      2646      2647
      2670      2672      2673      2695      2697      2700      2703      2705
      2708      4419      4420
cmsel,s,_FIXEDSU
d,all,all
nsel,all
/com,*********** Create Remote Point "Internal Remote Point 2" ***********
! -------- Remote Point Used by "Running" --------
*set,tid,3
*set,cid,2
et,cid,174
et,tid,170
keyo,tid,2,1               ! Don't fix the pilot node
keyo,tid,4,0               ! Activate all DOF's due to large deformation
keyo,cid,12,5              ! Bonded Contact 
keyo,cid,4,1               ! Deformable RBE3 style load
keyo,cid,2,2               ! MPC style contact
eblock,10,,,98
(15i9)
     5876        2        2        2        0       83       85      510      510     1793     1808      510     1797
     5877        2        2        2        0       81       97      293      293     1779     1922      293     1780
     5878        2        2        2        0       85       81      293      293     1778     1780      293     1806
     5879        2        2        2        0      139      289      147      147     2216     2262      147     2212
     5880        2        2        2        0      289      149      509      509     2272     2275      509     3078
     5881        2        2        2        0      509      291      151      151     3089     2284      151     2285
     5882        2        2        2        0      290      148      291      291     2268     2269      291     3082
     5883        2        2        2        0      292      138      140      140     2209     2206      140     2221
     5884        2        2        2        0      505      140      141      141     2222     2218      141     2229
     5885        2        2        2        0      510       85      293      293     1808     1806      293     3099
     5886        2        2        2        0      292      140      505      505     2221     2222      505     3094
     5887        2        2        2        0      141      142      505      505     2225     2233      505     2229
     5888        2        2        2        0      142      506      505      505     2234     4361      505     2233
     5889        2        2        2        0      143      144      506      506     2237     2246      506     2241
     5890        2        2        2        0      144      507      506      506     2247     4369      506     2246
     5891        2        2        2        0      145      146      507      507     2250     2257      507     2253
     5892        2        2        2        0      147      509      146      146     2263     2258      146     2255
     5893        2        2        2        0      290      291      509      509     3082     3089      509     3085
     5894        2        2        2        0       82       84      508      508     1785     1802      508     1787
     5895        2        2        2        0       84      510      508      508     1803     4382      508     1802
! ... 79 like lines cut
*set,_npilot,7254
_npilot50=_npilot
type,tid
mat ,cid
real,cid
tshape,pilo
en,5974,_npilot
tshape
csys,14
nrot,7254
csys,0
/com,*********** Construct Remote Force ***********

*DIM,_loadvari49x,TABLE,9,1,1,TIME,
! Time values
_loadvari49x(1,0,1) = 0.
_loadvari49x(2,0,1) = 9.5e-002
_loadvari49x(3,0,1) = 0.198
_loadvari49x(4,0,1) = 0.295
_loadvari49x(5,0,1) = 0.394
_loadvari49x(6,0,1) = 0.497
_loadvari49x(7,0,1) = 0.601
_loadvari49x(8,0,1) = 0.706
_loadvari49x(9,0,1) = 0.77
! Load values
_loadvari49x(1,1,1) = 96.5376685
_loadvari49x(2,1,1) = 112.2340785
_loadvari49x(3,1,1) = 222.694698
_loadvari49x(4,1,1) = 516.595305
_loadvari49x(5,1,1) = 353.790981
_loadvari49x(6,1,1) = 199.837893
_loadvari49x(7,1,1) = 234.413122
_loadvari49x(8,1,1) = 223.6836395
_loadvari49x(9,1,1) = 133.626737


*DIM,_loadvari49y,TABLE,9,1,1,TIME,
! Time values
_loadvari49y(1,0,1) = 0.
_loadvari49y(2,0,1) = 9.5e-002
_loadvari49y(3,0,1) = 0.198
_loadvari49y(4,0,1) = 0.295
_loadvari49y(5,0,1) = 0.394
_loadvari49y(6,0,1) = 0.497
_loadvari49y(7,0,1) = 0.601
_loadvari49y(8,0,1) = 0.706
_loadvari49y(9,0,1) = 0.77
! Load values
_loadvari49y(1,1,1) = -24.1993475
_loadvari49y(2,1,1) = -89.1729
_loadvari49y(3,1,1) = -160.90916
_loadvari49y(4,1,1) = -565.9939
_loadvari49y(5,1,1) = -172.804435
_loadvari49y(6,1,1) = -90.44348
_loadvari49y(7,1,1) = -120.886395
_loadvari49y(8,1,1) = -44.7632505
_loadvari49y(9,1,1) = -39.9344405


*DIM,_loadvari49z,TABLE,9,1,1,TIME,
! Time values
_loadvari49z(1,0,1) = 0.
_loadvari49z(2,0,1) = 9.5e-002
_loadvari49z(3,0,1) = 0.198
_loadvari49z(4,0,1) = 0.295
_loadvari49z(5,0,1) = 0.394
_loadvari49z(6,0,1) = 0.497
_loadvari49z(7,0,1) = 0.601
_loadvari49z(8,0,1) = 0.706
_loadvari49z(9,0,1) = 0.77
! Load values
_loadvari49z(1,1,1) = -84.664765
_loadvari49z(2,1,1) = -373.073295
_loadvari49z(3,1,1) = -921.77145
_loadvari49z(4,1,1) = -2166.6318
_loadvari49z(5,1,1) = -1257.9853
_loadvari49z(6,1,1) = -556.76755
_loadvari49z(7,1,1) = -422.41634
_loadvari49z(8,1,1) = -122.554915
_loadvari49z(9,1,1) = -124.78146

tblist
/gst,on,on
fini
*get,_numnode,node,0,count
*get,_numelem,elem,0,count
*get, _MAXELEMNUM, elem, 0, NUM, MAX
*get, _MAXNODENUM, node, 0, NUM, MAX
*get, _MAXELEMTYPE, etyp, 0, NUM, MAX
*get, _MAXREALCONST, real, 0, NUM, MAX
/go
/wb,load,end               !  done creating loads
/com,--- Number of total nodes = %_numnode%
/com,--- Number of contact elements = 98
/com,--- Number of spring elements = 0
/com,--- Number of bearing elements = 0
/com,--- Number of solid elements = 4574
/com,--- Number of condensed parts = 0
/com,--- Number of total elements = %_numelem%
*get,_wallbsol,active,,time,wall
/com,****************************************************************************
/com,*************************    SOLUTION       ********************************
/com,****************************************************************************
/solu
antype,4                   ! transient analysis
nlgeom,on                  ! Turn on Large Deformation Effects
kbc,1                      ! stepped BC's
_thickRatio=  1     ! Ratio of thick parts in the model
eqsl,pcg,1e-8,,,,,,1
cntr,print,1               ! print out contact info and also make no initial contact an error
dmpoption,emat,no             ! Don't combine emat file for DANSYS
dmpoption,esav,no             ! Don't combine esav file for DANSYS
trnopt,full,,,,,hht        ! HHT time integration method
tintp, mosp			! Choose transient integration settings for moderate speed application
nldiag,cont,iter           ! print out contact info each equilibrium iteration
rescontrol,define,last,last,,dele	   ! Program Controlled
/com,****************************************************
/com,******************* SOLVE FOR LS 1 OF 1 ****************
nsel,s,node,,7254
f,all,fx,%_loadvari49x%
f,all,fy,%_loadvari49y%
f,all,fz,%_loadvari49z%
nsel,all
/nopr
/gopr
autots,on                   ! User turned on automatic time stepping
deltim,0.025,0.025,0.025,OFF
time,0.77
timint,on                  ! Turn on time integration effects
outres,erase
outres,all,none
outres,nsol,all,
outres,rsol,all
outres,eangl,all
outres,etmp,all
outres,veng,all
outres,strs,all,
outres,epel,all,
outres,eppl,all,
outres,cont,all,
outres,v,all,
outres,a,all,
! *********** WB SOLVE COMMAND ***********
! check interactive state
*get,ANSINTER_,active,,int
*if,ANSINTER_,ne,0,then
/eof
*endif
solve
/com *************** Write FE CONNECTORS ********* 
CEWRITE,file,ce,,INTE
/com,****************************************************
/com,*************** FINISHED SOLVE FOR LS 1 *************
*get,_wallasol,active,,time,wall
/nopr
*get,_numnode,node,0,count
*get,_numelem,elem,0,count
*get, _MAXELEMNUM, elem, 0, NUM, MAX
*get, _MAXNODENUM, node, 0, NUM, MAX,,,INTERNAL
*get, _MAXELEMTYPE, etyp, 0, NUM, MAX
*get, _MAXREALCONST, real, 0, NUM, MAX
/gopr
*get,_PCGITER,active,,solu,cgiter
/post1
xmlo,ENCODING,ISO-8859-1
xmlo,parm
/xml,parm,xml
fini
/gopr
*get,_walldone,active,,time,wall
_preptime=(_wallbsol-_wallstrt)*3600
_solvtime=(_wallasol-_wallbsol)*3600
_posttime=(_walldone-_wallasol)*3600
_totaltim=(_walldone-_wallstrt)*3600
*get,_dlbratio,active,0,solu,dlbr
*get,_combtime,active,0,solu,comb
/com,--- Total number of nodes = %_numnode%
/com,--- Total number of elements = %_numelem%
/com,--- Element load balance ratio = %_dlbratio%
/com,--- Time to combine distributed files = %_combtime%
/wb,file,end               ! done with WB generated input
